CHEMBL1169875 PubChem-46838615


 37 41  0  0  0  0  0  0  0  0999 V2000
   17.1726  -10.0421   14.0332 C   0  0  0  0  0  0  0  0  0  0  0  0
   17.8768  -11.0930   14.6514 C   0  0  0  0  0  0  0  0  0  0  0  0
   17.8477  -11.2208   16.0431 C   0  0  0  0  0  0  0  0  0  0  0  0
   17.1245  -10.3123   16.8198 C   0  0  0  0  0  0  0  0  0  0  0  0
   16.4208   -9.2636   16.2132 C   0  0  0  0  0  0  0  0  0  0  0  0
   16.4509   -9.1364   14.8174 C   0  0  0  0  0  0  0  0  0  0  0  0
   18.6614  -12.0842   13.8588 C   0  0  0  0  0  0  0  0  0  0  0  0
   15.6584   -8.3056   17.0332 C   0  0  0  0  0  0  0  0  0  0  0  0
   14.9947   -7.3920   16.4716 O   0  0  0  0  0  0  0  0  0  0  0  0
   15.6778   -8.4212   18.4645 N   0  0  0  0  0  0  0  0  0  0  0  0
   16.2135   -9.1573   18.8391 H   0  0  0  0  0  0  0  0  0  0  0  0
   14.9998   -7.5784   19.4065 C   0  0  0  0  0  0  0  0  0  0  0  0
   13.7570   -6.9990   19.1167 C   0  0  0  0  0  0  0  0  0  0  0  0
   13.1241   -6.1909   20.0684 C   0  0  0  0  0  0  0  0  0  0  0  0
   13.7639   -5.9471   21.2886 C   0  0  0  0  0  0  0  0  0  0  0  0
   15.0016   -6.5380   21.5459 C   0  0  0  0  0  0  0  0  0  0  0  0
   15.5851   -7.3339   20.6104 N   0  0  0  0  0  0  0  0  0  0  0  0
   11.8183   -5.5234   19.7484 C   0  0  0  0  0  0  0  0  0  0  0  0
   10.9805   -6.3980   19.0780 F   0  0  0  0  0  0  0  0  0  0  0  0
   12.0530   -4.4207   18.9484 F   0  0  0  0  0  0  0  0  0  0  0  0
   11.1883   -5.1129   20.9106 F   0  0  0  0  0  0  0  0  0  0  0  0
   17.1745   -9.8710   12.6031 C   0  0  0  0  0  0  0  0  0  0  0  0
   17.1772   -9.7277   11.4060 C   0  0  0  0  0  0  0  0  0  0  0  0
   17.1818   -9.5605   10.0150 N   0  0  0  0  0  0  0  0  0  0  0  0
   16.3107  -10.0934    9.1233 C   0  0  0  0  0  0  0  0  0  0  0  0
   16.5980   -9.7324    7.8396 N   0  0  0  0  0  0  0  0  0  0  0  0
   17.6873   -8.9514    7.9752 C   0  0  0  0  0  0  0  0  0  0  0  0
   18.0356   -8.8491    9.2756 C   0  0  0  0  0  0  0  0  0  0  0  0
   19.0979   -8.1209    9.6974 N   0  0  0  0  0  0  0  0  0  0  0  0
   19.8378   -7.4677    8.7506 C   0  0  0  0  0  0  0  0  0  0  0  0
   19.5044   -7.5556    7.4220 N   0  0  0  0  0  0  0  0  0  0  0  0
   18.4300   -8.2935    7.0052 C   0  0  0  0  0  0  0  0  0  0  0  0
   18.0814   -8.3847    5.6229 N   0  0  0  0  0  0  0  0  0  0  0  0
   17.1458   -8.2339    5.3562 H   0  0  0  0  0  0  0  0  0  0  0  0
   19.0643   -8.6929    4.5978 C   0  0  0  0  0  0  0  0  0  0  0  0
   18.5097   -8.3022    3.2443 C   0  0  0  0  0  0  0  0  0  0  0  0
   19.5159   -7.4075    3.9359 C   0  0  0  0  0  0  0  0  0  0  0  0
  1  2  2  0  0  0
  2  3  1  0  0  0
  3  4  2  0  0  0
  4  5  1  0  0  0
  5  6  2  0  0  0
  5  8  1  0  0  0
  8  9  2  0  0  0
  8 10  1  0  0  0
 10 12  1  0  0  0
 12 13  2  0  0  0
 13 14  1  0  0  0
 14 15  2  0  0  0
 15 16  1  0  0  0
 16 17  2  0  0  0
 14 18  1  0  0  0
 18 19  1  0  0  0
 18 20  1  0  0  0
 18 21  1  0  0  0
  2  7  1  0  0  0
  1 22  1  0  0  0
 22 23  3  0  0  0
 23 24  1  0  0  0
 24 25  1  0  0  0
 25 26  2  0  0  0
 26 27  1  0  0  0
 27 28  2  0  0  0
 28 29  1  0  0  0
 29 30  2  0  0  0
 30 31  1  0  0  0
 31 32  2  0  0  0
 32 33  1  0  0  0
 33 35  1  0  0  0
 35 36  1  0  0  0
 36 37  1  0  0  0
  6  1  1  0  0  0
 17 12  1  0  0  0
 28 24  1  0  0  0
 37 35  1  0  0  0
 32 27  1  0  0  0
 10 11  1  0  0  0
 33 34  1  0  0  0
M  END
>  <minimizedAffinity>
-12.04928

>  <minimizedRMSD>
0.78477

$$$$
