PubChem-86292682


 36 39  0  0  0  0  0  0  0  0999 V2000
   18.6509  -12.0456   13.9784 C   0  0  0  0  0  0  0  0  0  0  0  0
   17.8672  -11.0500   14.7665 C   0  0  0  0  0  0  0  0  0  0  0  0
   17.1256  -10.0295   14.1409 C   0  0  0  0  0  0  0  0  0  0  0  0
   16.4064   -9.1185   14.9210 C   0  0  0  0  0  0  0  0  0  0  0  0
   16.4154   -9.2102   16.3198 C   0  0  0  0  0  0  0  0  0  0  0  0
   17.1561  -10.2288   16.9337 C   0  0  0  0  0  0  0  0  0  0  0  0
   17.8772  -11.1424   16.1612 C   0  0  0  0  0  0  0  0  0  0  0  0
   15.6551   -8.2469   17.1355 C   0  0  0  0  0  0  0  0  0  0  0  0
   14.9507   -7.3674   16.5692 O   0  0  0  0  0  0  0  0  0  0  0  0
   15.7232   -8.3182   18.5682 N   0  0  0  0  0  0  0  0  0  0  0  0
   16.2910   -9.0276   18.9473 H   0  0  0  0  0  0  0  0  0  0  0  0
   15.0514   -7.4652   19.5050 C   0  0  0  0  0  0  0  0  0  0  0  0
   13.7735   -6.9478   19.2536 C   0  0  0  0  0  0  0  0  0  0  0  0
   13.1309   -6.1156   20.1829 C   0  0  0  0  0  0  0  0  0  0  0  0
   13.7950   -5.7999   21.3904 C   0  0  0  0  0  0  0  0  0  0  0  0
   15.0725   -6.3144   21.6364 C   0  0  0  0  0  0  0  0  0  0  0  0
   15.6948   -7.1424   20.7010 C   0  0  0  0  0  0  0  0  0  0  0  0
   13.1842   -4.9017   22.4167 C   0  0  0  0  0  0  0  0  0  0  0  0
   13.6452   -3.5388   22.2171 N   0  0  0  0  0  0  0  0  0  0  0  0
   14.6608   -3.5068   22.3070 H   0  0  0  0  0  0  0  0  0  0  0  0
   13.2225   -2.9308   22.9185 H   0  0  0  0  0  0  0  0  0  0  0  0
   11.7556   -5.5783   19.8700 C   0  0  0  0  0  0  0  0  0  0  0  0
   11.0088   -5.4994   21.0316 F   0  0  0  0  0  0  0  0  0  0  0  0
   11.0902   -6.4007   18.9757 F   0  0  0  0  0  0  0  0  0  0  0  0
   11.8642   -4.3179   19.3112 F   0  0  0  0  0  0  0  0  0  0  0  0
   17.0866   -9.8955   12.7074 C   0  0  0  0  0  0  0  0  0  0  0  0
   17.0548   -9.7833   11.5076 C   0  0  0  0  0  0  0  0  0  0  0  0
   17.0191   -9.6484   10.0770 C   0  0  0  0  0  0  0  0  0  0  0  0
   16.1349  -10.2731    9.2081 C   0  0  0  0  0  0  0  0  0  0  0  0
   16.4282   -9.8881    7.9360 N   0  0  0  0  0  0  0  0  0  0  0  0
   17.4737   -9.0483    8.0764 C   0  0  0  0  0  0  0  0  0  0  0  0
   17.8443   -8.8901    9.3496 N   0  0  0  0  0  0  0  0  0  0  0  0
   18.8503   -8.1119    9.7430 N   0  0  0  0  0  0  0  0  0  0  0  0
   19.5576   -7.4259    8.8004 C   0  0  0  0  0  0  0  0  0  0  0  0
   19.2132   -7.5525    7.4401 C   0  0  0  0  0  0  0  0  0  0  0  0
   18.1464   -8.3821    7.0594 C   0  0  0  0  0  0  0  0  0  0  0  0
  1  2  1  0  0  0
  2  3  2  0  0  0
  3  4  1  0  0  0
  3 26  1  0  0  0
  4  5  2  0  0  0
  5  6  1  0  0  0
  5  8  1  0  0  0
  6  7  2  0  0  0
  7  2  1  0  0  0
  8  9  2  0  0  0
  8 10  1  0  0  0
 10 12  1  0  0  0
 12 13  2  0  0  0
 13 14  1  0  0  0
 14 15  2  0  0  0
 14 22  1  0  0  0
 15 16  1  0  0  0
 15 18  1  0  0  0
 16 17  2  0  0  0
 17 12  1  0  0  0
 18 19  1  0  0  0
 22 23  1  0  0  0
 22 24  1  0  0  0
 22 25  1  0  0  0
 26 27  3  0  0  0
 27 28  1  0  0  0
 28 29  2  0  0  0
 29 30  1  0  0  0
 30 31  2  0  0  0
 31 32  1  0  0  0
 32 33  1  0  0  0
 32 28  1  0  0  0
 33 34  2  0  0  0
 34 35  1  0  0  0
 35 36  2  0  0  0
 36 31  1  0  0  0
 10 11  1  0  0  0
 19 20  1  0  0  0
 19 21  1  0  0  0
M  END
>  <minimizedAffinity>
-12.82178

>  <minimizedRMSD>
0.80442

$$$$
PubChem-154693373


 35 38  0  0  0  0  0  0  0  0999 V2000
   16.4385   -9.1563   16.2220 C   0  0  0  0  0  0  0  0  0  0  0  0
   16.4247   -9.0808   14.8222 C   0  0  0  0  0  0  0  0  0  0  0  0
   17.2032   -9.9511   14.0524 C   0  0  0  0  0  0  0  0  0  0  0  0
   18.0098  -10.9136   14.6894 C   0  0  0  0  0  0  0  0  0  0  0  0
   18.0242  -10.9898   16.0850 C   0  0  0  0  0  0  0  0  0  0  0  0
   17.2439  -10.1172   16.8473 C   0  0  0  0  0  0  0  0  0  0  0  0
   18.8581  -11.8639   13.9126 C   0  0  0  0  0  0  0  0  0  0  0  0
   15.6298   -8.3370   18.4592 N   0  0  0  0  0  0  0  0  0  0  0  0
   15.6157   -8.2361   17.0267 C   0  0  0  0  0  0  0  0  0  0  0  0
   14.9056   -7.3670   16.4513 O   0  0  0  0  0  0  0  0  0  0  0  0
   16.2046   -9.0366   18.8457 H   0  0  0  0  0  0  0  0  0  0  0  0
   13.0381   -6.0365   19.9299 C   0  0  0  0  0  0  0  0  0  0  0  0
   13.7422   -6.8244   19.0068 C   0  0  0  0  0  0  0  0  0  0  0  0
   14.8949   -7.5262   19.3859 C   0  0  0  0  0  0  0  0  0  0  0  0
   15.3457   -7.4365   20.7050 C   0  0  0  0  0  0  0  0  0  0  0  0
   14.6564   -6.6567   21.6356 C   0  0  0  0  0  0  0  0  0  0  0  0
   13.5071   -5.9571   21.2575 C   0  0  0  0  0  0  0  0  0  0  0  0
   12.8258   -5.1698   22.2306 N   0  0  0  0  0  0  0  0  0  0  0  0
   13.1660   -5.1248   23.1533 H   0  0  0  0  0  0  0  0  0  0  0  0
   12.0148   -4.6709   21.9800 H   0  0  0  0  0  0  0  0  0  0  0  0
   11.8419   -3.9985   19.9772 F   0  0  0  0  0  0  0  0  0  0  0  0
   11.8019   -5.2933   19.4925 C   0  0  0  0  0  0  0  0  0  0  0  0
   10.6777   -5.9296   19.9869 F   0  0  0  0  0  0  0  0  0  0  0  0
   11.7109   -5.2454   18.1113 F   0  0  0  0  0  0  0  0  0  0  0  0
   17.1569   -9.8356   12.6175 C   0  0  0  0  0  0  0  0  0  0  0  0
   17.1192   -9.7387   11.4165 C   0  0  0  0  0  0  0  0  0  0  0  0
   17.0765   -9.6221    9.9846 C   0  0  0  0  0  0  0  0  0  0  0  0
   17.8889   -8.8620    9.2447 N   0  0  0  0  0  0  0  0  0  0  0  0
   18.8861   -8.0659    9.6247 N   0  0  0  0  0  0  0  0  0  0  0  0
   19.5807   -7.3822    8.6709 C   0  0  0  0  0  0  0  0  0  0  0  0
   19.2330   -7.5300    7.3137 C   0  0  0  0  0  0  0  0  0  0  0  0
   18.1757   -8.3780    6.9473 C   0  0  0  0  0  0  0  0  0  0  0  0
   17.5156   -9.0406    7.9750 C   0  0  0  0  0  0  0  0  0  0  0  0
   16.4807   -9.8955    7.8489 N   0  0  0  0  0  0  0  0  0  0  0  0
   16.1973  -10.2689    9.1269 C   0  0  0  0  0  0  0  0  0  0  0  0
 21 22  1  0  0  0
 22 23  1  0  0  0
 22 24  1  0  0  0
 22 12  1  0  0  0
 12 13  2  0  0  0
 13 14  1  0  0  0
 14  8  1  0  0  0
  8  9  1  0  0  0
  9 10  2  0  0  0
  9  1  1  0  0  0
  1  2  2  0  0  0
  2  3  1  0  0  0
  3  4  2  0  0  0
  4  5  1  0  0  0
  5  6  2  0  0  0
  4  7  1  0  0  0
  3 25  1  0  0  0
 25 26  3  0  0  0
 26 27  1  0  0  0
 27 28  1  0  0  0
 28 29  1  0  0  0
 29 30  2  0  0  0
 30 31  1  0  0  0
 31 32  2  0  0  0
 32 33  1  0  0  0
 33 34  2  0  0  0
 34 35  1  0  0  0
 14 15  2  0  0  0
 15 16  1  0  0  0
 16 17  2  0  0  0
 17 18  1  0  0  0
 17 12  1  0  0  0
  6  1  1  0  0  0
 35 27  2  0  0  0
 33 28  1  0  0  0
  8 11  1  0  0  0
 18 19  1  0  0  0
 18 20  1  0  0  0
M  END
>  <minimizedAffinity>
-12.74427

>  <minimizedRMSD>
0.46526

$$$$
PubChem-86292683


 35 38  0  0  0  0  0  0  0  0999 V2000
   18.6175  -12.0608   14.0045 C   0  0  0  0  0  0  0  0  0  0  0  0
   17.8425  -11.0597   14.7943 C   0  0  0  0  0  0  0  0  0  0  0  0
   17.1090  -10.0324   14.1704 C   0  0  0  0  0  0  0  0  0  0  0  0
   16.3978   -9.1164   14.9521 C   0  0  0  0  0  0  0  0  0  0  0  0
   16.4070   -9.2099   16.3508 C   0  0  0  0  0  0  0  0  0  0  0  0
   17.1395  -10.2353   16.9630 C   0  0  0  0  0  0  0  0  0  0  0  0
   17.8525  -11.1539   16.1889 C   0  0  0  0  0  0  0  0  0  0  0  0
   15.6551   -8.2412   17.1681 C   0  0  0  0  0  0  0  0  0  0  0  0
   14.9444   -7.3656   16.6034 O   0  0  0  0  0  0  0  0  0  0  0  0
   15.7383   -8.3029   18.6004 N   0  0  0  0  0  0  0  0  0  0  0  0
   16.3100   -9.0097   18.9783 H   0  0  0  0  0  0  0  0  0  0  0  0
   15.0764   -7.4435   19.5383 C   0  0  0  0  0  0  0  0  0  0  0  0
   13.7986   -6.9226   19.2941 C   0  0  0  0  0  0  0  0  0  0  0  0
   13.1658   -6.0841   20.2245 C   0  0  0  0  0  0  0  0  0  0  0  0
   13.8395   -5.7670   21.4262 C   0  0  0  0  0  0  0  0  0  0  0  0
   15.1173   -6.2835   21.6646 C   0  0  0  0  0  0  0  0  0  0  0  0
   15.7300   -7.1176   20.7281 C   0  0  0  0  0  0  0  0  0  0  0  0
   11.7908   -5.5420   19.9194 C   0  0  0  0  0  0  0  0  0  0  0  0
   11.0341   -5.5087   21.0767 F   0  0  0  0  0  0  0  0  0  0  0  0
   11.1371   -6.3342   18.9900 F   0  0  0  0  0  0  0  0  0  0  0  0
   11.8981   -4.2616   19.4078 F   0  0  0  0  0  0  0  0  0  0  0  0
   13.2406   -4.8610   22.4520 C   0  0  0  0  0  0  0  0  0  0  0  0
   13.7349   -3.5673   22.2857 O   0  0  0  0  0  0  0  0  0  0  0  0
   14.6993   -3.5737   22.3900 H   0  0  0  0  0  0  0  0  0  0  0  0
   17.0702   -9.8962   12.7372 C   0  0  0  0  0  0  0  0  0  0  0  0
   17.0384   -9.7822   11.5375 C   0  0  0  0  0  0  0  0  0  0  0  0
   17.0023   -9.6450   10.1072 C   0  0  0  0  0  0  0  0  0  0  0  0
   16.1116  -10.2607    9.2385 C   0  0  0  0  0  0  0  0  0  0  0  0
   16.4063   -9.8759    7.9665 N   0  0  0  0  0  0  0  0  0  0  0  0
   17.4592   -9.0454    8.1069 C   0  0  0  0  0  0  0  0  0  0  0  0
   17.8329   -8.8925    9.3798 N   0  0  0  0  0  0  0  0  0  0  0  0
   18.8459   -8.1234    9.7733 N   0  0  0  0  0  0  0  0  0  0  0  0
   19.5576   -7.4415    8.8307 C   0  0  0  0  0  0  0  0  0  0  0  0
   19.2102   -7.5630    7.4708 C   0  0  0  0  0  0  0  0  0  0  0  0
   18.1360   -8.3829    7.0901 C   0  0  0  0  0  0  0  0  0  0  0  0
  1  2  1  0  0  0
  2  3  2  0  0  0
  3  4  1  0  0  0
  3 25  1  0  0  0
  4  5  2  0  0  0
  5  6  1  0  0  0
  5  8  1  0  0  0
  6  7  2  0  0  0
  7  2  1  0  0  0
  8  9  2  0  0  0
  8 10  1  0  0  0
 10 12  1  0  0  0
 12 13  2  0  0  0
 13 14  1  0  0  0
 14 15  2  0  0  0
 14 18  1  0  0  0
 15 16  1  0  0  0
 15 22  1  0  0  0
 16 17  2  0  0  0
 17 12  1  0  0  0
 22 23  1  0  0  0
 18 19  1  0  0  0
 18 20  1  0  0  0
 18 21  1  0  0  0
 25 26  3  0  0  0
 26 27  1  0  0  0
 27 28  2  0  0  0
 28 29  1  0  0  0
 29 30  2  0  0  0
 30 31  1  0  0  0
 31 32  1  0  0  0
 31 27  1  0  0  0
 32 33  2  0  0  0
 33 34  1  0  0  0
 34 35  2  0  0  0
 35 30  1  0  0  0
 10 11  1  0  0  0
 23 24  1  0  0  0
M  END
>  <minimizedAffinity>
-12.68166

>  <minimizedRMSD>
0.83482

$$$$
PubChem-118013022


 38 41  0  0  0  0  0  0  0  0999 V2000
   15.6093   -8.1974   17.0768 C   0  0  0  0  0  0  0  0  0  0  0  0
   14.8880   -7.3400   16.4957 O   0  0  0  0  0  0  0  0  0  0  0  0
   15.6777   -8.2439   18.5114 N   0  0  0  0  0  0  0  0  0  0  0  0
   16.3327   -8.8667   18.9017 H   0  0  0  0  0  0  0  0  0  0  0  0
   18.7071  -11.9796   13.9926 C   0  0  0  0  0  0  0  0  0  0  0  0
   17.8947  -10.9899   14.7611 C   0  0  0  0  0  0  0  0  0  0  0  0
   17.1347   -9.9936   14.1155 C   0  0  0  0  0  0  0  0  0  0  0  0
   16.3928   -9.0847   14.8778 C   0  0  0  0  0  0  0  0  0  0  0  0
   16.3983   -9.1541   16.2783 C   0  0  0  0  0  0  0  0  0  0  0  0
   17.1568  -10.1486   16.9119 C   0  0  0  0  0  0  0  0  0  0  0  0
   17.8996  -11.0606   16.1575 C   0  0  0  0  0  0  0  0  0  0  0  0
   17.1017   -9.8804   12.6792 C   0  0  0  0  0  0  0  0  0  0  0  0
   17.0727   -9.7839   11.4775 C   0  0  0  0  0  0  0  0  0  0  0  0
   17.0421   -9.6612   10.0446 C   0  0  0  0  0  0  0  0  0  0  0  0
   16.1583  -10.2849    9.1756 C   0  0  0  0  0  0  0  0  0  0  0  0
   16.4495   -9.8972    7.9030 N   0  0  0  0  0  0  0  0  0  0  0  0
   17.4926   -9.0547    8.0440 C   0  0  0  0  0  0  0  0  0  0  0  0
   17.8645   -8.8995    9.3174 N   0  0  0  0  0  0  0  0  0  0  0  0
   18.8635   -8.1139    9.7134 N   0  0  0  0  0  0  0  0  0  0  0  0
   19.5622   -7.4138    8.7744 C   0  0  0  0  0  0  0  0  0  0  0  0
   19.2173   -7.5359    7.4132 C   0  0  0  0  0  0  0  0  0  0  0  0
   18.1589   -8.3759    7.0286 C   0  0  0  0  0  0  0  0  0  0  0  0
   14.8910   -7.4771   19.4342 C   0  0  0  0  0  0  0  0  0  0  0  0
   15.4327   -7.1728   20.6881 C   0  0  0  0  0  0  0  0  0  0  0  0
   14.6981   -6.4438   21.6389 C   0  0  0  0  0  0  0  0  0  0  0  0
   13.4053   -6.0104   21.3061 C   0  0  0  0  0  0  0  0  0  0  0  0
   12.8574   -6.2837   20.0432 C   0  0  0  0  0  0  0  0  0  0  0  0
   13.5990   -7.0346   19.1203 C   0  0  0  0  0  0  0  0  0  0  0  0
   11.4631   -5.8443   19.7059 C   0  0  0  0  0  0  0  0  0  0  0  0
   10.7545   -6.9196   19.2010 F   0  0  0  0  0  0  0  0  0  0  0  0
   11.4989   -4.8394   18.7547 F   0  0  0  0  0  0  0  0  0  0  0  0
   10.8165   -5.3632   20.8324 F   0  0  0  0  0  0  0  0  0  0  0  0
   15.2587   -6.1570   22.9376 N   0  0  0  0  0  0  0  0  0  0  0  0
   16.5961   -6.6143   23.2881 C   0  0  0  0  0  0  0  0  0  0  0  0
   14.4696   -5.5334   23.9936 C   0  0  0  0  0  0  0  0  0  0  0  0
   14.8534   -4.0723   24.1515 C   0  0  0  0  0  0  0  0  0  0  0  0
   13.7311   -3.2743   23.9350 O   0  0  0  0  0  0  0  0  0  0  0  0
   13.3939   -3.4269   23.0384 H   0  0  0  0  0  0  0  0  0  0  0  0
  5  6  1  0  0  0
  6  7  2  0  0  0
  7  8  1  0  0  0
  8  9  2  0  0  0
  9 10  1  0  0  0
 10 11  2  0  0  0
  9  1  1  0  0  0
  1  2  2  0  0  0
  1  3  1  0  0  0
  3 23  1  0  0  0
 23 24  2  0  0  0
 24 25  1  0  0  0
 25 26  2  0  0  0
 26 27  1  0  0  0
 27 28  2  0  0  0
 27 29  1  0  0  0
 29 30  1  0  0  0
 29 31  1  0  0  0
 29 32  1  0  0  0
 25 33  1  0  0  0
 33 34  1  0  0  0
 33 35  1  0  0  0
 35 36  1  0  0  0
 36 37  1  0  0  0
  7 12  1  0  0  0
 12 13  3  0  0  0
 13 14  1  0  0  0
 14 15  2  0  0  0
 15 16  1  0  0  0
 16 17  2  0  0  0
 17 18  1  0  0  0
 18 19  1  0  0  0
 19 20  2  0  0  0
 20 21  1  0  0  0
 21 22  2  0  0  0
 11  6  1  0  0  0
 28 23  1  0  0  0
 18 14  1  0  0  0
 22 17  1  0  0  0
  3  4  1  0  0  0
 37 38  1  0  0  0
M  END
>  <minimizedAffinity>
-12.61227

>  <minimizedRMSD>
0.78645

$$$$
PubChem-118016835


 37 41  0  0  0  0  0  0  0  0999 V2000
   15.5456   -8.2506   17.0323 C   0  0  0  0  0  0  0  0  0  0  0  0
   14.7674   -7.4493   16.4463 O   0  0  0  0  0  0  0  0  0  0  0  0
   15.5831   -8.3163   18.4664 N   0  0  0  0  0  0  0  0  0  0  0  0
   16.2169   -8.9574   18.8619 H   0  0  0  0  0  0  0  0  0  0  0  0
   19.0468  -11.6645   13.9560 C   0  0  0  0  0  0  0  0  0  0  0  0
   18.1299  -10.7716   14.7231 C   0  0  0  0  0  0  0  0  0  0  0  0
   17.2461   -9.8866   14.0764 C   0  0  0  0  0  0  0  0  0  0  0  0
   16.4050   -9.0686   14.8373 C   0  0  0  0  0  0  0  0  0  0  0  0
   16.4319   -9.1195   16.2377 C   0  0  0  0  0  0  0  0  0  0  0  0
   17.3149  -10.0024   16.8730 C   0  0  0  0  0  0  0  0  0  0  0  0
   18.1581  -10.8232   16.1196 C   0  0  0  0  0  0  0  0  0  0  0  0
   17.1865   -9.7932   12.6406 C   0  0  0  0  0  0  0  0  0  0  0  0
   17.1369   -9.7099   11.4390 C   0  0  0  0  0  0  0  0  0  0  0  0
   17.0806   -9.6018   10.0057 C   0  0  0  0  0  0  0  0  0  0  0  0
   16.1711  -10.2353    9.1734 C   0  0  0  0  0  0  0  0  0  0  0  0
   16.4385   -9.8777    7.8909 N   0  0  0  0  0  0  0  0  0  0  0  0
   17.4943   -9.0449    7.9892 C   0  0  0  0  0  0  0  0  0  0  0  0
   17.9029   -8.8596    9.2526 N   0  0  0  0  0  0  0  0  0  0  0  0
   18.9458   -8.0631    9.5991 C   0  0  0  0  0  0  0  0  0  0  0  0
   19.6326   -7.3986    8.5730 C   0  0  0  0  0  0  0  0  0  0  0  0
   19.2231   -7.5764    7.2375 C   0  0  0  0  0  0  0  0  0  0  0  0
   18.1365   -8.4113    6.9280 C   0  0  0  0  0  0  0  0  0  0  0  0
   14.7937   -7.5454   19.3829 C   0  0  0  0  0  0  0  0  0  0  0  0
   15.1232   -7.5715   20.7424 C   0  0  0  0  0  0  0  0  0  0  0  0
   14.3757   -6.8344   21.6675 C   0  0  0  0  0  0  0  0  0  0  0  0
   13.2961   -6.0601   21.2332 C   0  0  0  0  0  0  0  0  0  0  0  0
   12.9633   -6.0233   19.8764 C   0  0  0  0  0  0  0  0  0  0  0  0
   13.7052   -6.7695   18.9560 C   0  0  0  0  0  0  0  0  0  0  0  0
   11.7964   -5.2239   19.4176 C   0  0  0  0  0  0  0  0  0  0  0  0
   10.6252   -5.8205   19.8461 F   0  0  0  0  0  0  0  0  0  0  0  0
   14.7453   -6.8500   23.1115 C   0  0  0  0  0  0  0  0  0  0  0  0
   15.9093   -5.9991   23.3455 N   0  0  0  0  0  0  0  0  0  0  0  0
   16.9770   -6.8078   23.9515 C   0  0  0  0  0  0  0  0  0  0  0  0
   16.6900   -7.1070   25.4291 C   0  0  0  0  0  0  0  0  0  0  0  0
   16.5417   -5.9035   26.1366 O   0  0  0  0  0  0  0  0  0  0  0  0
   15.3530   -5.3188   25.6720 C   0  0  0  0  0  0  0  0  0  0  0  0
   15.5312   -4.8730   24.2151 C   0  0  0  0  0  0  0  0  0  0  0  0
  5  6  1  0  0  0
  6  7  2  0  0  0
  7  8  1  0  0  0
  8  9  2  0  0  0
  9 10  1  0  0  0
 10 11  2  0  0  0
  9  1  1  0  0  0
  1  2  2  0  0  0
  1  3  1  0  0  0
  3 23  1  0  0  0
 23 24  2  0  0  0
 24 25  1  0  0  0
 25 26  2  0  0  0
 26 27  1  0  0  0
 27 28  2  0  0  0
 27 29  1  0  0  0
 29 30  1  0  0  0
 25 31  1  0  0  0
 31 32  1  0  0  0
 32 33  1  0  0  0
 33 34  1  0  0  0
 34 35  1  0  0  0
 35 36  1  0  0  0
 36 37  1  0  0  0
  7 12  1  0  0  0
 12 13  3  0  0  0
 13 14  1  0  0  0
 14 15  2  0  0  0
 15 16  1  0  0  0
 16 17  2  0  0  0
 17 18  1  0  0  0
 18 19  1  0  0  0
 19 20  2  0  0  0
 20 21  1  0  0  0
 21 22  2  0  0  0
 11  6  1  0  0  0
 28 23  1  0  0  0
 37 32  1  0  0  0
 18 14  1  0  0  0
 22 17  1  0  0  0
  3  4  1  0  0  0
M  END
>  <minimizedAffinity>
-12.51299

>  <minimizedRMSD>
0.59851

$$$$
PubChem-67891348


 37 40  0  0  0  0  0  0  0  0999 V2000
   15.5656   -8.2445   17.1031 C   0  0  0  0  0  0  0  0  0  0  0  0
   14.7566   -7.4659   16.5287 O   0  0  0  0  0  0  0  0  0  0  0  0
   15.6409   -8.2936   18.5363 N   0  0  0  0  0  0  0  0  0  0  0  0
   16.2928   -8.9227   18.9216 H   0  0  0  0  0  0  0  0  0  0  0  0
   19.0161  -11.6680   13.9812 C   0  0  0  0  0  0  0  0  0  0  0  0
   18.1128  -10.7714   14.7600 C   0  0  0  0  0  0  0  0  0  0  0  0
   17.2366   -9.8707   14.1244 C   0  0  0  0  0  0  0  0  0  0  0  0
   16.4087   -9.0490   14.8960 C   0  0  0  0  0  0  0  0  0  0  0  0
   16.4413   -9.1127   16.2961 C   0  0  0  0  0  0  0  0  0  0  0  0
   17.3161  -10.0118   16.9199 C   0  0  0  0  0  0  0  0  0  0  0  0
   18.1463  -10.8355   16.1559 C   0  0  0  0  0  0  0  0  0  0  0  0
   17.1689   -9.7694   12.6893 C   0  0  0  0  0  0  0  0  0  0  0  0
   17.1139   -9.6846   11.4880 C   0  0  0  0  0  0  0  0  0  0  0  0
   17.0506   -9.5822   10.0557 C   0  0  0  0  0  0  0  0  0  0  0  0
   16.1506  -10.2268    9.2184 C   0  0  0  0  0  0  0  0  0  0  0  0
   16.4206   -9.8721    7.9323 N   0  0  0  0  0  0  0  0  0  0  0  0
   17.4690   -9.0303    8.0335 C   0  0  0  0  0  0  0  0  0  0  0  0
   17.8628   -8.8422    9.2955 N   0  0  0  0  0  0  0  0  0  0  0  0
   18.8768   -8.0564    9.6519 N   0  0  0  0  0  0  0  0  0  0  0  0
   19.5674   -7.3938    8.6804 C   0  0  0  0  0  0  0  0  0  0  0  0
   19.1979   -7.5523    7.3301 C   0  0  0  0  0  0  0  0  0  0  0  0
   18.1235   -8.3892    6.9887 C   0  0  0  0  0  0  0  0  0  0  0  0
   14.8667   -7.5231   19.4655 C   0  0  0  0  0  0  0  0  0  0  0  0
   13.6462   -6.9333   19.1062 C   0  0  0  0  0  0  0  0  0  0  0  0
   12.9151   -6.1834   20.0327 C   0  0  0  0  0  0  0  0  0  0  0  0
   13.4003   -6.0329   21.3464 C   0  0  0  0  0  0  0  0  0  0  0  0
   14.6198   -6.6196   21.7027 C   0  0  0  0  0  0  0  0  0  0  0  0
   15.3474   -7.3597   20.7677 C   0  0  0  0  0  0  0  0  0  0  0  0
   11.6080   -5.5998   19.6104 C   0  0  0  0  0  0  0  0  0  0  0  0
   10.7151   -6.6156   19.3231 F   0  0  0  0  0  0  0  0  0  0  0  0
   12.6538   -5.2368   22.3709 C   0  0  0  0  0  0  0  0  0  0  0  0
   13.4216   -4.0178   22.7592 C   0  0  0  0  0  0  0  0  0  0  0  0
   13.8756   -3.8999   23.9619 N   0  0  0  0  0  0  0  0  0  0  0  0
   13.7911   -3.0663   21.7680 N   0  0  0  0  0  0  0  0  0  0  0  0
   13.6220   -4.5564   24.6504 H   0  0  0  0  0  0  0  0  0  0  0  0
   13.4468   -3.1530   20.8497 H   0  0  0  0  0  0  0  0  0  0  0  0
   14.3911   -2.3211   22.0004 H   0  0  0  0  0  0  0  0  0  0  0  0
  5  6  1  0  0  0
  6  7  2  0  0  0
  7  8  1  0  0  0
  8  9  2  0  0  0
  9 10  1  0  0  0
 10 11  2  0  0  0
  9  1  1  0  0  0
  1  2  2  0  0  0
  1  3  1  0  0  0
  3 23  1  0  0  0
 23 24  2  0  0  0
 24 25  1  0  0  0
 25 26  2  0  0  0
 26 27  1  0  0  0
 27 28  2  0  0  0
 26 31  1  0  0  0
 31 32  1  0  0  0
 32 33  2  0  0  0
 32 34  1  0  0  0
 25 29  1  0  0  0
 29 30  1  0  0  0
  7 12  1  0  0  0
 12 13  3  0  0  0
 13 14  1  0  0  0
 14 15  2  0  0  0
 15 16  1  0  0  0
 16 17  2  0  0  0
 17 18  1  0  0  0
 18 19  1  0  0  0
 19 20  2  0  0  0
 20 21  1  0  0  0
 21 22  2  0  0  0
 11  6  1  0  0  0
 28 23  1  0  0  0
 18 14  1  0  0  0
 22 17  1  0  0  0
  3  4  1  0  0  0
 33 35  1  0  0  0
 34 36  1  0  0  0
 34 37  1  0  0  0
M  END
>  <minimizedAffinity>
-12.41134

>  <minimizedRMSD>
0.70276

$$$$
PubChem-58945716


 39 43  0  0  0  0  0  0  0  0999 V2000
   18.5989  -12.2062   13.8541 C   0  0  0  0  0  0  0  0  0  0  0  0
   17.8537  -11.1933   14.6574 C   0  0  0  0  0  0  0  0  0  0  0  0
   17.1910  -10.1092   14.0504 C   0  0  0  0  0  0  0  0  0  0  0  0
   16.5040   -9.1854   14.8443 C   0  0  0  0  0  0  0  0  0  0  0  0
   16.4656   -9.3280   16.2383 C   0  0  0  0  0  0  0  0  0  0  0  0
   17.1263  -10.4109   16.8337 C   0  0  0  0  0  0  0  0  0  0  0  0
   17.8160  -11.3369   16.0473 C   0  0  0  0  0  0  0  0  0  0  0  0
   15.7400   -8.3503   17.0683 C   0  0  0  0  0  0  0  0  0  0  0  0
   15.0722   -7.4337   16.5154 O   0  0  0  0  0  0  0  0  0  0  0  0
   15.7970   -8.4510   18.4998 N   0  0  0  0  0  0  0  0  0  0  0  0
   16.3314   -9.1909   18.8687 H   0  0  0  0  0  0  0  0  0  0  0  0
   15.1567   -7.5863   19.4480 C   0  0  0  0  0  0  0  0  0  0  0  0
   15.7615   -7.3877   20.6931 C   0  0  0  0  0  0  0  0  0  0  0  0
   15.1677   -6.5527   21.6428 C   0  0  0  0  0  0  0  0  0  0  0  0
   13.9630   -5.9089   21.3513 C   0  0  0  0  0  0  0  0  0  0  0  0
   13.3411   -6.0955   20.1074 C   0  0  0  0  0  0  0  0  0  0  0  0
   13.9466   -6.9369   19.1618 C   0  0  0  0  0  0  0  0  0  0  0  0
   15.8194   -6.3464   22.9622 C   0  0  0  0  0  0  0  0  0  0  0  0
   12.1016   -5.4348   19.8051 N   0  0  0  0  0  0  0  0  0  0  0  0
   11.7719   -4.8406   18.6445 C   0  0  0  0  0  0  0  0  0  0  0  0
   10.4941   -4.3364   18.7880 C   0  0  0  0  0  0  0  0  0  0  0  0
   10.0452   -4.6210   20.0280 N   0  0  0  0  0  0  0  0  0  0  0  0
   11.0465   -5.2928   20.6274 C   0  0  0  0  0  0  0  0  0  0  0  0
   17.1971   -9.9243   12.6219 C   0  0  0  0  0  0  0  0  0  0  0  0
   17.2006   -9.7694   11.4263 C   0  0  0  0  0  0  0  0  0  0  0  0
   17.2051   -9.5814   10.0001 C   0  0  0  0  0  0  0  0  0  0  0  0
   16.2867  -10.1072    9.1055 C   0  0  0  0  0  0  0  0  0  0  0  0
   16.6219   -9.6993    7.8546 N   0  0  0  0  0  0  0  0  0  0  0  0
   17.7257   -8.9429    8.0313 C   0  0  0  0  0  0  0  0  0  0  0  0
   18.1001   -8.8557    9.3166 N   0  0  0  0  0  0  0  0  0  0  0  0
   19.1789   -8.1514    9.7437 C   0  0  0  0  0  0  0  0  0  0  0  0
   19.9452   -7.4769    8.7836 C   0  0  0  0  0  0  0  0  0  0  0  0
   19.5763   -7.5502    7.4275 C   0  0  0  0  0  0  0  0  0  0  0  0
   18.4481   -8.2933    7.0282 C   0  0  0  0  0  0  0  0  0  0  0  0
   18.0364   -8.3977    5.6573 N   0  0  0  0  0  0  0  0  0  0  0  0
   18.8755   -8.2675    4.5034 C   0  0  0  0  0  0  0  0  0  0  0  0
   20.1059   -8.0240    4.6130 O   0  0  0  0  0  0  0  0  0  0  0  0
   18.2813   -8.4240    3.1506 C   0  0  0  0  0  0  0  0  0  0  0  0
   17.0822   -8.5767    5.4935 H   0  0  0  0  0  0  0  0  0  0  0  0
  1  2  1  0  0  0
  2  3  2  0  0  0
  3  4  1  0  0  0
  3 24  1  0  0  0
  4  5  2  0  0  0
  5  6  1  0  0  0
  5  8  1  0  0  0
  6  7  2  0  0  0
  7  2  1  0  0  0
  8  9  2  0  0  0
  8 10  1  0  0  0
 10 12  1  0  0  0
 12 13  2  0  0  0
 13 14  1  0  0  0
 14 15  2  0  0  0
 14 18  1  0  0  0
 15 16  1  0  0  0
 16 17  2  0  0  0
 16 19  1  0  0  0
 17 12  1  0  0  0
 19 20  1  0  0  0
 20 21  2  0  0  0
 21 22  1  0  0  0
 22 23  2  0  0  0
 23 19  1  0  0  0
 24 25  3  0  0  0
 25 26  1  0  0  0
 26 27  2  0  0  0
 27 28  1  0  0  0
 28 29  2  0  0  0
 29 30  1  0  0  0
 30 31  1  0  0  0
 30 26  1  0  0  0
 31 32  2  0  0  0
 32 33  1  0  0  0
 33 34  2  0  0  0
 34 35  1  0  0  0
 34 29  1  0  0  0
 35 36  1  0  0  0
 36 37  2  0  0  0
 36 38  1  0  0  0
 10 11  1  0  0  0
 35 39  1  0  0  0
M  END
>  <minimizedAffinity>
-12.35776

>  <minimizedRMSD>
0.77875

$$$$
PubChem-58945678


 35 39  0  0  0  0  0  0  0  0999 V2000
   18.7060  -12.0223   13.9257 C   0  0  0  0  0  0  0  0  0  0  0  0
   17.9124  -11.0398   14.7202 C   0  0  0  0  0  0  0  0  0  0  0  0
   17.1592  -10.0238   14.1013 C   0  0  0  0  0  0  0  0  0  0  0  0
   16.4308   -9.1252   14.8873 C   0  0  0  0  0  0  0  0  0  0  0  0
   16.4423   -9.2249   16.2857 C   0  0  0  0  0  0  0  0  0  0  0  0
   17.1945  -10.2390   16.8929 C   0  0  0  0  0  0  0  0  0  0  0  0
   17.9245  -11.1403   16.1144 C   0  0  0  0  0  0  0  0  0  0  0  0
   15.6726   -8.2746   17.1076 C   0  0  0  0  0  0  0  0  0  0  0  0
   14.9821   -7.3801   16.5473 O   0  0  0  0  0  0  0  0  0  0  0  0
   15.7154   -8.3753   18.5395 N   0  0  0  0  0  0  0  0  0  0  0  0
   16.2732   -9.0951   18.9136 H   0  0  0  0  0  0  0  0  0  0  0  0
   15.0318   -7.5382   19.4820 C   0  0  0  0  0  0  0  0  0  0  0  0
   13.7442   -7.0399   19.2361 C   0  0  0  0  0  0  0  0  0  0  0  0
   13.1030   -6.2258   20.1743 C   0  0  0  0  0  0  0  0  0  0  0  0
   13.7537   -5.9062   21.3808 C   0  0  0  0  0  0  0  0  0  0  0  0
   15.0405   -6.3977   21.6227 C   0  0  0  0  0  0  0  0  0  0  0  0
   15.6741   -7.2104   20.6794 C   0  0  0  0  0  0  0  0  0  0  0  0
   11.7347   -5.7186   19.8670 C   0  0  0  0  0  0  0  0  0  0  0  0
   13.1161   -5.0205   22.4035 C   0  0  0  0  0  0  0  0  0  0  0  0
   13.7077   -5.2606   23.7103 N   0  0  0  0  0  0  0  0  0  0  0  0
   12.6150   -5.4259   24.6574 C   0  0  0  0  0  0  0  0  0  0  0  0
   13.0293   -4.7696   25.9560 C   0  0  0  0  0  0  0  0  0  0  0  0
   14.1841   -3.8672   25.5986 C   0  0  0  0  0  0  0  0  0  0  0  0
   14.3741   -4.0306   24.1070 C   0  0  0  0  0  0  0  0  0  0  0  0
   17.1175   -9.8817   12.6687 C   0  0  0  0  0  0  0  0  0  0  0  0
   17.0835   -9.7626   11.4696 C   0  0  0  0  0  0  0  0  0  0  0  0
   17.0450   -9.6191   10.0389 C   0  0  0  0  0  0  0  0  0  0  0  0
   16.1461  -10.2332    9.1797 C   0  0  0  0  0  0  0  0  0  0  0  0
   16.4323   -9.8497    7.9083 N   0  0  0  0  0  0  0  0  0  0  0  0
   17.4879   -9.0223    8.0424 C   0  0  0  0  0  0  0  0  0  0  0  0
   17.8790   -8.8642    9.3125 N   0  0  0  0  0  0  0  0  0  0  0  0
   18.9204   -8.0764    9.6791 C   0  0  0  0  0  0  0  0  0  0  0  0
   19.6060   -7.4040    8.6566 C   0  0  0  0  0  0  0  0  0  0  0  0
   19.2095   -7.5628    7.3561 N   0  0  0  0  0  0  0  0  0  0  0  0
   18.1565   -8.3631    7.0164 C   0  0  0  0  0  0  0  0  0  0  0  0
  1  2  1  0  0  0
  2  3  2  0  0  0
  3  4  1  0  0  0
  3 25  1  0  0  0
  4  5  2  0  0  0
  5  6  1  0  0  0
  5  8  1  0  0  0
  6  7  2  0  0  0
  7  2  1  0  0  0
  8  9  2  0  0  0
  8 10  1  0  0  0
 10 12  1  0  0  0
 12 13  2  0  0  0
 13 14  1  0  0  0
 14 15  2  0  0  0
 14 18  1  0  0  0
 15 16  1  0  0  0
 15 19  1  0  0  0
 16 17  2  0  0  0
 17 12  1  0  0  0
 19 20  1  0  0  0
 20 21  1  0  0  0
 21 22  1  0  0  0
 22 23  1  0  0  0
 23 24  1  0  0  0
 24 20  1  0  0  0
 25 26  3  0  0  0
 26 27  1  0  0  0
 27 28  2  0  0  0
 28 29  1  0  0  0
 29 30  2  0  0  0
 30 31  1  0  0  0
 31 32  1  0  0  0
 31 27  1  0  0  0
 32 33  2  0  0  0
 33 34  1  0  0  0
 34 35  2  0  0  0
 35 30  1  0  0  0
 10 11  1  0  0  0
M  END
>  <minimizedAffinity>
-12.00643

>  <minimizedRMSD>
1.10784

$$$$
PubChem-50802116 33268545 ChemDiv-G756-0356 MCULE-8012339124 MolPort-010-744-630 ZINC000033268545 ZINC33268545


 34 37  0  0  0  0  0  0  0  0999 V2000
   17.0163   -9.9064   16.6977 C   0  0  0  0  0  0  0  0  0  0  0  0
   17.7029  -11.0527   17.1075 C   0  0  0  0  0  0  0  0  0  0  0  0
   18.1924  -11.9592   16.1636 C   0  0  0  0  0  0  0  0  0  0  0  0
   17.9988  -11.7284   14.7990 C   0  0  0  0  0  0  0  0  0  0  0  0
   18.5341  -12.7110   13.8154 C   0  0  0  0  0  0  0  0  0  0  0  0
   17.3072  -10.5835   14.3709 C   0  0  0  0  0  0  0  0  0  0  0  0
   16.8201   -9.6788   15.3284 C   0  0  0  0  0  0  0  0  0  0  0  0
   15.3913   -8.1347   17.5821 C   0  0  0  0  0  0  0  0  0  0  0  0
   14.7075   -8.0889   16.5262 O   0  0  0  0  0  0  0  0  0  0  0  0
   16.5270   -9.0000   17.6956 N   0  0  0  0  0  0  0  0  0  0  0  0
   17.0225   -8.9695   18.5457 H   0  0  0  0  0  0  0  0  0  0  0  0
   15.0127   -7.2758   18.7356 C   0  0  0  0  0  0  0  0  0  0  0  0
   13.7256   -6.7131   18.5077 O   0  0  0  0  0  0  0  0  0  0  0  0
   10.6810   -3.9808   22.4723 C   0  0  0  0  0  0  0  0  0  0  0  0
   11.5038   -4.7066   21.4617 C   0  0  0  0  0  0  0  0  0  0  0  0
   11.1178   -4.6542   20.1191 C   0  0  0  0  0  0  0  0  0  0  0  0
   11.8638   -5.3244   19.1455 C   0  0  0  0  0  0  0  0  0  0  0  0
   13.0035   -6.0525   19.5046 C   0  0  0  0  0  0  0  0  0  0  0  0
   13.3922   -6.1058   20.8529 C   0  0  0  0  0  0  0  0  0  0  0  0
   12.6469   -5.4419   21.8329 C   0  0  0  0  0  0  0  0  0  0  0  0
   13.0897   -5.5337   23.2543 C   0  0  0  0  0  0  0  0  0  0  0  0
   17.1172  -10.3589   13.0022 O   0  0  0  0  0  0  0  0  0  0  0  0
   16.9331   -9.0602   12.4546 C   0  0  0  0  0  0  0  0  0  0  0  0
   17.1533   -9.1026   10.9854 C   0  0  0  0  0  0  0  0  0  0  0  0
   16.4758  -10.0349   10.2057 C   0  0  0  0  0  0  0  0  0  0  0  0
   16.7235  -10.0705    8.8341 C   0  0  0  0  0  0  0  0  0  0  0  0
   16.1045  -10.9088    8.1238 O   0  0  0  0  0  0  0  0  0  0  0  0
   17.6242   -9.2040    8.2752 N   0  0  0  0  0  0  0  0  0  0  0  0
   17.8663   -9.2402    6.9302 C   0  0  0  0  0  0  0  0  0  0  0  0
   18.7811   -8.3633    6.3441 C   0  0  0  0  0  0  0  0  0  0  0  0
   19.4530   -7.4422    7.1449 C   0  0  0  0  0  0  0  0  0  0  0  0
   19.2065   -7.4069    8.5162 C   0  0  0  0  0  0  0  0  0  0  0  0
   18.2854   -8.2969    9.0731 C   0  0  0  0  0  0  0  0  0  0  0  0
   18.0462   -8.2592   10.4097 N   0  0  0  0  0  0  0  0  0  0  0  0
 14 15  1  0  0  0
 15 16  2  0  0  0
 16 17  1  0  0  0
 17 18  2  0  0  0
 18 13  1  0  0  0
 18 19  1  0  0  0
 13 12  1  0  0  0
 12  8  1  0  0  0
  8  9  2  0  0  0
  8 10  1  0  0  0
 10  1  1  0  0  0
  1  2  2  0  0  0
  2  3  1  0  0  0
  3  4  2  0  0  0
  4  5  1  0  0  0
  4  6  1  0  0  0
  6 22  1  0  0  0
  6  7  2  0  0  0
 22 23  1  0  0  0
 23 24  1  0  0  0
 24 25  2  0  0  0
 25 26  1  0  0  0
 26 27  2  0  0  0
 26 28  1  0  0  0
 28 29  1  0  0  0
 29 30  2  0  0  0
 30 31  1  0  0  0
 31 32  2  0  0  0
 32 33  1  0  0  0
 33 34  2  0  0  0
 33 28  1  0  0  0
 34 24  1  0  0  0
  7  1  1  0  0  0
 19 20  2  0  0  0
 20 21  1  0  0  0
 20 15  1  0  0  0
 10 11  1  0  0  0
M  END
>  <minimizedAffinity>
-9.94651

>  <minimizedRMSD>
1.02166

$$$$
PubChem-46355983 33067800 ChemDiv-G756-0360 MCULE-6394300379 MolPort-007-879-116 ZINC000033067800 ZINC33067800


 33 36  0  0  0  0  0  0  0  0999 V2000
   18.7715  -12.4716   13.5729 C   0  0  0  0  0  0  0  0  0  0  0  0
   18.1098  -11.5950   14.5802 C   0  0  0  0  0  0  0  0  0  0  0  0
   18.0880  -12.0531   15.9012 C   0  0  0  0  0  0  0  0  0  0  0  0
   17.4829  -11.2996   16.9061 C   0  0  0  0  0  0  0  0  0  0  0  0
   16.8852  -10.0752   16.6049 C   0  0  0  0  0  0  0  0  0  0  0  0
   16.9068   -9.6086   15.2837 C   0  0  0  0  0  0  0  0  0  0  0  0
   17.5124  -10.3463   14.2601 C   0  0  0  0  0  0  0  0  0  0  0  0
   16.2809   -9.3225   17.6652 N   0  0  0  0  0  0  0  0  0  0  0  0
   15.5355   -8.1056   17.5363 C   0  0  0  0  0  0  0  0  0  0  0  0
   15.2750   -7.6141   16.4058 O   0  0  0  0  0  0  0  0  0  0  0  0
   16.3894   -9.6788   18.5765 H   0  0  0  0  0  0  0  0  0  0  0  0
   15.0298   -7.4287   18.7633 C   0  0  0  0  0  0  0  0  0  0  0  0
   13.9093   -6.6063   18.4520 O   0  0  0  0  0  0  0  0  0  0  0  0
   12.5818   -7.0504   18.5205 C   0  0  0  0  0  0  0  0  0  0  0  0
   11.5427   -6.1114   18.6277 C   0  0  0  0  0  0  0  0  0  0  0  0
   11.8856   -4.3909   18.6695 Cl  0  0  0  0  0  0  0  0  0  0  0  0
   10.2136   -6.5410   18.7067 C   0  0  0  0  0  0  0  0  0  0  0  0
    9.9118   -7.9047   18.6765 C   0  0  0  0  0  0  0  0  0  0  0  0
   10.9396   -8.8444   18.5668 C   0  0  0  0  0  0  0  0  0  0  0  0
   12.2688   -8.4198   18.4923 C   0  0  0  0  0  0  0  0  0  0  0  0
   17.4820   -9.7819   12.9745 O   0  0  0  0  0  0  0  0  0  0  0  0
   18.6037   -9.2555   12.2804 C   0  0  0  0  0  0  0  0  0  0  0  0
   18.3011   -9.1775   10.8269 C   0  0  0  0  0  0  0  0  0  0  0  0
   17.1889   -9.8377   10.3128 C   0  0  0  0  0  0  0  0  0  0  0  0
   16.9195   -9.7398    8.9481 C   0  0  0  0  0  0  0  0  0  0  0  0
   15.9072  -10.3310    8.4809 O   0  0  0  0  0  0  0  0  0  0  0  0
   17.7429   -9.0057    8.1365 N   0  0  0  0  0  0  0  0  0  0  0  0
   17.4820   -8.9156    6.7978 C   0  0  0  0  0  0  0  0  0  0  0  0
   18.3100   -8.1698    5.9570 C   0  0  0  0  0  0  0  0  0  0  0  0
   19.4146   -7.5098    6.4947 C   0  0  0  0  0  0  0  0  0  0  0  0
   19.6795   -7.6013    7.8601 C   0  0  0  0  0  0  0  0  0  0  0  0
   18.8327   -8.3564    8.6751 C   0  0  0  0  0  0  0  0  0  0  0  0
   19.0953   -8.4469   10.0046 N   0  0  0  0  0  0  0  0  0  0  0  0
  1  2  1  0  0  0
  2  3  2  0  0  0
  3  4  1  0  0  0
  4  5  2  0  0  0
  5  8  1  0  0  0
  5  6  1  0  0  0
  8  9  1  0  0  0
  9 10  2  0  0  0
  9 12  1  0  0  0
 12 13  1  0  0  0
 13 14  1  0  0  0
 14 15  2  0  0  0
 15 16  1  0  0  0
 15 17  1  0  0  0
 17 18  2  0  0  0
 18 19  1  0  0  0
 19 20  2  0  0  0
 20 14  1  0  0  0
  6  7  2  0  0  0
  7 21  1  0  0  0
  7  2  1  0  0  0
 21 22  1  0  0  0
 22 23  1  0  0  0
 23 24  2  0  0  0
 24 25  1  0  0  0
 25 26  2  0  0  0
 25 27  1  0  0  0
 27 28  1  0  0  0
 28 29  2  0  0  0
 29 30  1  0  0  0
 30 31  2  0  0  0
 31 32  1  0  0  0
 32 33  2  0  0  0
 32 27  1  0  0  0
 33 23  1  0  0  0
  8 11  1  0  0  0
M  END
>  <minimizedAffinity>
-8.83079

>  <minimizedRMSD>
1.33466

$$$$
PubChem-124142109


 32 35  0  0  0  0  0  0  0  0999 V2000
   16.8777   -9.2362   15.0178 C   0  0  0  0  0  0  0  0  0  0  0  0
   18.1360   -9.5935   15.5241 C   0  0  0  0  0  0  0  0  0  0  0  0
   18.4382   -9.3563   16.8677 C   0  0  0  0  0  0  0  0  0  0  0  0
   17.4899   -8.7644   17.7065 C   0  0  0  0  0  0  0  0  0  0  0  0
   16.2298   -8.4037   17.2092 C   0  0  0  0  0  0  0  0  0  0  0  0
   15.9316   -8.6439   15.8600 C   0  0  0  0  0  0  0  0  0  0  0  0
   19.0678  -10.1687   14.7232 F   0  0  0  0  0  0  0  0  0  0  0  0
   15.2307   -7.7792   18.0942 C   0  0  0  0  0  0  0  0  0  0  0  0
   14.1388   -7.3693   17.6141 O   0  0  0  0  0  0  0  0  0  0  0  0
   15.5079   -7.6425   19.4958 N   0  0  0  0  0  0  0  0  0  0  0  0
   16.3759   -7.9821   19.8127 H   0  0  0  0  0  0  0  0  0  0  0  0
   14.6428   -7.0595   20.4782 C   0  0  0  0  0  0  0  0  0  0  0  0
   14.9426   -7.1388   21.8361 C   0  0  0  0  0  0  0  0  0  0  0  0
   13.7049   -6.3446   22.6555 S   0  0  0  0  0  0  0  0  0  0  0  0
   12.8118   -5.9165   21.3044 C   0  0  0  0  0  0  0  0  0  0  0  0
   13.4546   -6.3759   20.1691 C   0  0  0  0  0  0  0  0  0  0  0  0
   11.2830   -4.9917   21.3313 S   0  0  0  0  0  0  0  0  0  0  0  0
   11.0001   -5.2528   19.5577 C   0  0  0  0  0  0  0  0  0  0  0  0
   16.2698   -9.6658   12.4818 C   0  0  0  0  0  0  0  0  0  0  0  0
   16.5463   -9.4702   13.6386 C   0  0  0  0  0  0  0  0  0  0  0  0
   18.4345   -8.6509    8.7039 C   0  0  0  0  0  0  0  0  0  0  0  0
   17.8953   -8.8904    9.9823 C   0  0  0  0  0  0  0  0  0  0  0  0
   16.7020   -9.5294   10.0577 N   0  0  0  0  0  0  0  0  0  0  0  0
   16.0066   -9.9458    8.9934 C   0  0  0  0  0  0  0  0  0  0  0  0
   14.8578  -10.5500    9.3494 N   0  0  0  0  0  0  0  0  0  0  0  0
   14.8188  -10.5182   10.6797 N   0  0  0  0  0  0  0  0  0  0  0  0
   15.9428   -9.8966   11.1003 C   0  0  0  0  0  0  0  0  0  0  0  0
   16.4779   -9.7435    7.7008 C   0  0  0  0  0  0  0  0  0  0  0  0
   17.7120   -9.0846    7.5675 C   0  0  0  0  0  0  0  0  0  0  0  0
   20.6948   -7.8682    9.6782 C   0  0  0  0  0  0  0  0  0  0  0  0
   19.7285   -7.9609    8.5459 C   0  0  0  0  0  0  0  0  0  0  0  0
   20.0361   -7.4365    7.4425 O   0  0  0  0  0  0  0  0  0  0  0  0
 30 31  1  0  0  0
 31 32  2  0  0  0
 31 21  1  0  0  0
 21 22  2  0  0  0
 22 23  1  0  0  0
 23 24  1  0  0  0
 24 25  2  0  0  0
 25 26  1  0  0  0
 26 27  2  0  0  0
 27 19  1  0  0  0
 19 20  3  0  0  0
 20  1  1  0  0  0
  1  2  2  0  0  0
  2  3  1  0  0  0
  3  4  2  0  0  0
  4  5  1  0  0  0
  5  6  2  0  0  0
  5  8  1  0  0  0
  8  9  2  0  0  0
  8 10  1  0  0  0
 10 12  1  0  0  0
 12 13  2  0  0  0
 13 14  1  0  0  0
 14 15  1  0  0  0
 15 16  2  0  0  0
 15 17  1  0  0  0
 17 18  1  0  0  0
  2  7  1  0  0  0
 24 28  1  0  0  0
 28 29  2  0  0  0
 29 21  1  0  0  0
 27 23  1  0  0  0
  6  1  1  0  0  0
 16 12  1  0  0  0
 10 11  1  0  0  0
M  END
>  <minimizedAffinity>
-6.69751

>  <minimizedRMSD>
1.85402

$$$$
