MCULE-8012339124 33268545 ChemDiv-G756-0356 MolPort-010-744-630 PubChem-50802116 ZINC000033268545 ZINC33268545


 34 37  0  0  0  0  0  0  0  0999 V2000
   17.0163   -9.9064   16.6977 C   0  0  0  0  0  0  0  0  0  0  0  0
   17.7029  -11.0527   17.1075 C   0  0  0  0  0  0  0  0  0  0  0  0
   18.1924  -11.9592   16.1636 C   0  0  0  0  0  0  0  0  0  0  0  0
   17.9988  -11.7284   14.7990 C   0  0  0  0  0  0  0  0  0  0  0  0
   18.5341  -12.7110   13.8154 C   0  0  0  0  0  0  0  0  0  0  0  0
   17.3072  -10.5835   14.3709 C   0  0  0  0  0  0  0  0  0  0  0  0
   16.8201   -9.6788   15.3284 C   0  0  0  0  0  0  0  0  0  0  0  0
   15.3913   -8.1347   17.5821 C   0  0  0  0  0  0  0  0  0  0  0  0
   14.7075   -8.0889   16.5262 O   0  0  0  0  0  0  0  0  0  0  0  0
   16.5270   -9.0000   17.6956 N   0  0  0  0  0  0  0  0  0  0  0  0
   17.0225   -8.9695   18.5457 H   0  0  0  0  0  0  0  0  0  0  0  0
   15.0127   -7.2758   18.7356 C   0  0  0  0  0  0  0  0  0  0  0  0
   13.7256   -6.7131   18.5077 O   0  0  0  0  0  0  0  0  0  0  0  0
   10.6810   -3.9808   22.4723 C   0  0  0  0  0  0  0  0  0  0  0  0
   11.5038   -4.7066   21.4617 C   0  0  0  0  0  0  0  0  0  0  0  0
   11.1178   -4.6542   20.1191 C   0  0  0  0  0  0  0  0  0  0  0  0
   11.8638   -5.3244   19.1455 C   0  0  0  0  0  0  0  0  0  0  0  0
   13.0035   -6.0525   19.5046 C   0  0  0  0  0  0  0  0  0  0  0  0
   13.3922   -6.1058   20.8529 C   0  0  0  0  0  0  0  0  0  0  0  0
   12.6469   -5.4419   21.8329 C   0  0  0  0  0  0  0  0  0  0  0  0
   13.0897   -5.5337   23.2543 C   0  0  0  0  0  0  0  0  0  0  0  0
   17.1172  -10.3589   13.0022 O   0  0  0  0  0  0  0  0  0  0  0  0
   16.9331   -9.0602   12.4546 C   0  0  0  0  0  0  0  0  0  0  0  0
   17.1533   -9.1026   10.9854 C   0  0  0  0  0  0  0  0  0  0  0  0
   16.4758  -10.0349   10.2057 C   0  0  0  0  0  0  0  0  0  0  0  0
   16.7235  -10.0705    8.8341 C   0  0  0  0  0  0  0  0  0  0  0  0
   16.1045  -10.9088    8.1238 O   0  0  0  0  0  0  0  0  0  0  0  0
   17.6242   -9.2040    8.2752 N   0  0  0  0  0  0  0  0  0  0  0  0
   17.8663   -9.2402    6.9302 C   0  0  0  0  0  0  0  0  0  0  0  0
   18.7811   -8.3633    6.3441 C   0  0  0  0  0  0  0  0  0  0  0  0
   19.4530   -7.4422    7.1449 C   0  0  0  0  0  0  0  0  0  0  0  0
   19.2065   -7.4069    8.5162 C   0  0  0  0  0  0  0  0  0  0  0  0
   18.2854   -8.2969    9.0731 C   0  0  0  0  0  0  0  0  0  0  0  0
   18.0462   -8.2592   10.4097 N   0  0  0  0  0  0  0  0  0  0  0  0
 14 15  1  0  0  0
 15 16  2  0  0  0
 16 17  1  0  0  0
 17 18  2  0  0  0
 18 13  1  0  0  0
 18 19  1  0  0  0
 13 12  1  0  0  0
 12  8  1  0  0  0
  8  9  2  0  0  0
  8 10  1  0  0  0
 10  1  1  0  0  0
  1  2  2  0  0  0
  2  3  1  0  0  0
  3  4  2  0  0  0
  4  5  1  0  0  0
  4  6  1  0  0  0
  6 22  1  0  0  0
  6  7  2  0  0  0
 22 23  1  0  0  0
 23 24  1  0  0  0
 24 25  2  0  0  0
 25 26  1  0  0  0
 26 27  2  0  0  0
 26 28  1  0  0  0
 28 29  1  0  0  0
 29 30  2  0  0  0
 30 31  1  0  0  0
 31 32  2  0  0  0
 32 33  1  0  0  0
 33 34  2  0  0  0
 33 28  1  0  0  0
 34 24  1  0  0  0
  7  1  1  0  0  0
 19 20  2  0  0  0
 20 21  1  0  0  0
 20 15  1  0  0  0
 10 11  1  0  0  0
M  END
>  <minimizedAffinity>
-9.94651

>  <minimizedRMSD>
1.02166

$$$$
MCULE-6394300379 33067800 ChemDiv-G756-0360 MolPort-007-879-116 PubChem-46355983 ZINC000033067800 ZINC33067800


 33 36  0  0  0  0  0  0  0  0999 V2000
   18.7715  -12.4716   13.5729 C   0  0  0  0  0  0  0  0  0  0  0  0
   18.1098  -11.5950   14.5802 C   0  0  0  0  0  0  0  0  0  0  0  0
   18.0880  -12.0531   15.9012 C   0  0  0  0  0  0  0  0  0  0  0  0
   17.4829  -11.2996   16.9061 C   0  0  0  0  0  0  0  0  0  0  0  0
   16.8852  -10.0752   16.6049 C   0  0  0  0  0  0  0  0  0  0  0  0
   16.9068   -9.6086   15.2837 C   0  0  0  0  0  0  0  0  0  0  0  0
   17.5124  -10.3463   14.2601 C   0  0  0  0  0  0  0  0  0  0  0  0
   16.2809   -9.3225   17.6652 N   0  0  0  0  0  0  0  0  0  0  0  0
   15.5355   -8.1056   17.5363 C   0  0  0  0  0  0  0  0  0  0  0  0
   15.2750   -7.6141   16.4058 O   0  0  0  0  0  0  0  0  0  0  0  0
   16.3894   -9.6788   18.5765 H   0  0  0  0  0  0  0  0  0  0  0  0
   15.0298   -7.4287   18.7633 C   0  0  0  0  0  0  0  0  0  0  0  0
   13.9093   -6.6063   18.4520 O   0  0  0  0  0  0  0  0  0  0  0  0
   12.5818   -7.0504   18.5205 C   0  0  0  0  0  0  0  0  0  0  0  0
   11.5427   -6.1114   18.6277 C   0  0  0  0  0  0  0  0  0  0  0  0
   11.8856   -4.3909   18.6695 Cl  0  0  0  0  0  0  0  0  0  0  0  0
   10.2136   -6.5410   18.7067 C   0  0  0  0  0  0  0  0  0  0  0  0
    9.9118   -7.9047   18.6765 C   0  0  0  0  0  0  0  0  0  0  0  0
   10.9396   -8.8444   18.5668 C   0  0  0  0  0  0  0  0  0  0  0  0
   12.2688   -8.4198   18.4923 C   0  0  0  0  0  0  0  0  0  0  0  0
   17.4820   -9.7819   12.9745 O   0  0  0  0  0  0  0  0  0  0  0  0
   18.6037   -9.2555   12.2804 C   0  0  0  0  0  0  0  0  0  0  0  0
   18.3011   -9.1775   10.8269 C   0  0  0  0  0  0  0  0  0  0  0  0
   17.1889   -9.8377   10.3128 C   0  0  0  0  0  0  0  0  0  0  0  0
   16.9195   -9.7398    8.9481 C   0  0  0  0  0  0  0  0  0  0  0  0
   15.9072  -10.3310    8.4809 O   0  0  0  0  0  0  0  0  0  0  0  0
   17.7429   -9.0057    8.1365 N   0  0  0  0  0  0  0  0  0  0  0  0
   17.4820   -8.9156    6.7978 C   0  0  0  0  0  0  0  0  0  0  0  0
   18.3100   -8.1698    5.9570 C   0  0  0  0  0  0  0  0  0  0  0  0
   19.4146   -7.5098    6.4947 C   0  0  0  0  0  0  0  0  0  0  0  0
   19.6795   -7.6013    7.8601 C   0  0  0  0  0  0  0  0  0  0  0  0
   18.8327   -8.3564    8.6751 C   0  0  0  0  0  0  0  0  0  0  0  0
   19.0953   -8.4469   10.0046 N   0  0  0  0  0  0  0  0  0  0  0  0
  1  2  1  0  0  0
  2  3  2  0  0  0
  3  4  1  0  0  0
  4  5  2  0  0  0
  5  8  1  0  0  0
  5  6  1  0  0  0
  8  9  1  0  0  0
  9 10  2  0  0  0
  9 12  1  0  0  0
 12 13  1  0  0  0
 13 14  1  0  0  0
 14 15  2  0  0  0
 15 16  1  0  0  0
 15 17  1  0  0  0
 17 18  2  0  0  0
 18 19  1  0  0  0
 19 20  2  0  0  0
 20 14  1  0  0  0
  6  7  2  0  0  0
  7 21  1  0  0  0
  7  2  1  0  0  0
 21 22  1  0  0  0
 22 23  1  0  0  0
 23 24  2  0  0  0
 24 25  1  0  0  0
 25 26  2  0  0  0
 25 27  1  0  0  0
 27 28  1  0  0  0
 28 29  2  0  0  0
 29 30  1  0  0  0
 30 31  2  0  0  0
 31 32  1  0  0  0
 32 33  2  0  0  0
 32 27  1  0  0  0
 33 23  1  0  0  0
  8 11  1  0  0  0
M  END
>  <minimizedAffinity>
-8.83079

>  <minimizedRMSD>
1.33466

$$$$
