MolPort-007-706-801 21797238 ChemDiv-D439-4253 MCULE-6456718294 PubChem-46268383 ZINC000021797238 ZINC21797238


 36 39  0  0  0  0  0  0  0  0999 V2000
   17.3093   -9.9901   14.3378 C   0  0  0  0  0  0  0  0  0  0  0  0
   16.7772   -9.2725   15.4155 C   0  0  0  0  0  0  0  0  0  0  0  0
   16.8914   -9.7411   16.7312 C   0  0  0  0  0  0  0  0  0  0  0  0
   17.5508  -10.9470   16.9710 C   0  0  0  0  0  0  0  0  0  0  0  0
   18.0858  -11.6802   15.9119 C   0  0  0  0  0  0  0  0  0  0  0  0
   17.9724  -11.2198   14.5966 C   0  0  0  0  0  0  0  0  0  0  0  0
   18.5639  -12.0735   13.5294 C   0  0  0  0  0  0  0  0  0  0  0  0
   16.3580   -9.0136   17.8452 N   0  0  0  0  0  0  0  0  0  0  0  0
   15.3491   -7.9954   17.8025 C   0  0  0  0  0  0  0  0  0  0  0  0
   14.7829   -7.6787   16.7228 O   0  0  0  0  0  0  0  0  0  0  0  0
   16.7224   -9.2362   18.7323 H   0  0  0  0  0  0  0  0  0  0  0  0
   14.9364   -7.3275   19.0657 C   0  0  0  0  0  0  0  0  0  0  0  0
   13.5905   -7.6730   19.3687 O   0  0  0  0  0  0  0  0  0  0  0  0
   12.6978   -6.7795   19.9722 C   0  0  0  0  0  0  0  0  0  0  0  0
   11.6190   -6.2677   19.2302 C   0  0  0  0  0  0  0  0  0  0  0  0
   11.4136   -6.6626   17.8083 C   0  0  0  0  0  0  0  0  0  0  0  0
   10.7192   -5.3770   19.8245 C   0  0  0  0  0  0  0  0  0  0  0  0
   10.8884   -4.9898   21.1568 C   0  0  0  0  0  0  0  0  0  0  0  0
   11.9591   -5.4919   21.9000 C   0  0  0  0  0  0  0  0  0  0  0  0
   12.1395   -5.0795   23.3161 C   0  0  0  0  0  0  0  0  0  0  0  0
   12.8602   -6.3828   21.3112 C   0  0  0  0  0  0  0  0  0  0  0  0
   17.1347   -9.4298   13.0618 O   0  0  0  0  0  0  0  0  0  0  0  0
   16.3878  -10.0101   12.0017 C   0  0  0  0  0  0  0  0  0  0  0  0
   18.6639   -8.2137    7.3351 N   0  0  0  0  0  0  0  0  0  0  0  0
   19.6011   -7.4236    7.9081 C   0  0  0  0  0  0  0  0  0  0  0  0
   19.5059   -7.4505    9.2662 N   0  0  0  0  0  0  0  0  0  0  0  0
   18.4744   -8.2966    9.4588 C   0  0  0  0  0  0  0  0  0  0  0  0
   17.9892   -8.6874   10.6622 N   0  0  0  0  0  0  0  0  0  0  0  0
   16.9531   -9.5781   10.6956 C   0  0  0  0  0  0  0  0  0  0  0  0
   16.4127  -10.0931    9.5000 C   0  0  0  0  0  0  0  0  0  0  0  0
   16.9526   -9.6682    8.2800 C   0  0  0  0  0  0  0  0  0  0  0  0
   16.5125  -10.1255    7.1927 O   0  0  0  0  0  0  0  0  0  0  0  0
   17.9678   -8.7631    8.3149 N   0  0  0  0  0  0  0  0  0  0  0  0
   18.4888   -8.4244    5.9023 C   0  0  0  0  0  0  0  0  0  0  0  0
   19.8595   -8.5078    3.8194 C   0  0  0  0  0  0  0  0  0  0  0  0
   19.6139   -7.7657    5.1187 C   0  0  0  0  0  0  0  0  0  0  0  0
 35 36  1  0  0  0
 36 34  1  0  0  0
 34 24  1  0  0  0
 24 25  1  0  0  0
 25 26  2  0  0  0
 26 27  1  0  0  0
 27 28  2  0  0  0
 28 29  1  0  0  0
 29 23  1  0  0  0
 29 30  2  0  0  0
 23 22  1  0  0  0
 22  1  1  0  0  0
  1  2  2  0  0  0
  2  3  1  0  0  0
  3  8  1  0  0  0
  3  4  2  0  0  0
  8  9  1  0  0  0
  9 10  2  0  0  0
  9 12  1  0  0  0
 12 13  1  0  0  0
 13 14  1  0  0  0
 14 15  2  0  0  0
 15 16  1  0  0  0
 15 17  1  0  0  0
 17 18  2  0  0  0
 18 19  1  0  0  0
 19 20  1  0  0  0
 19 21  2  0  0  0
 21 14  1  0  0  0
  4  5  1  0  0  0
  5  6  2  0  0  0
  6  7  1  0  0  0
  6  1  1  0  0  0
 30 31  1  0  0  0
 31 32  2  0  0  0
 31 33  1  0  0  0
 33 24  1  0  0  0
 33 27  1  0  0  0
  8 11  1  0  0  0
M  END
>  <minimizedAffinity>
-10.46565

>  <minimizedRMSD>
1.79838

$$$$
MolPort-010-744-630 33268545 ChemDiv-G756-0356 MCULE-8012339124 PubChem-50802116 ZINC000033268545 ZINC33268545


 34 37  0  0  0  0  0  0  0  0999 V2000
   17.0163   -9.9064   16.6977 C   0  0  0  0  0  0  0  0  0  0  0  0
   17.7029  -11.0527   17.1075 C   0  0  0  0  0  0  0  0  0  0  0  0
   18.1924  -11.9592   16.1636 C   0  0  0  0  0  0  0  0  0  0  0  0
   17.9988  -11.7284   14.7990 C   0  0  0  0  0  0  0  0  0  0  0  0
   18.5341  -12.7110   13.8154 C   0  0  0  0  0  0  0  0  0  0  0  0
   17.3072  -10.5835   14.3709 C   0  0  0  0  0  0  0  0  0  0  0  0
   16.8201   -9.6788   15.3284 C   0  0  0  0  0  0  0  0  0  0  0  0
   15.3913   -8.1347   17.5821 C   0  0  0  0  0  0  0  0  0  0  0  0
   14.7075   -8.0889   16.5262 O   0  0  0  0  0  0  0  0  0  0  0  0
   16.5270   -9.0000   17.6956 N   0  0  0  0  0  0  0  0  0  0  0  0
   17.0225   -8.9695   18.5457 H   0  0  0  0  0  0  0  0  0  0  0  0
   15.0127   -7.2758   18.7356 C   0  0  0  0  0  0  0  0  0  0  0  0
   13.7256   -6.7131   18.5077 O   0  0  0  0  0  0  0  0  0  0  0  0
   10.6810   -3.9808   22.4723 C   0  0  0  0  0  0  0  0  0  0  0  0
   11.5038   -4.7066   21.4617 C   0  0  0  0  0  0  0  0  0  0  0  0
   11.1178   -4.6542   20.1191 C   0  0  0  0  0  0  0  0  0  0  0  0
   11.8638   -5.3244   19.1455 C   0  0  0  0  0  0  0  0  0  0  0  0
   13.0035   -6.0525   19.5046 C   0  0  0  0  0  0  0  0  0  0  0  0
   13.3922   -6.1058   20.8529 C   0  0  0  0  0  0  0  0  0  0  0  0
   12.6469   -5.4419   21.8329 C   0  0  0  0  0  0  0  0  0  0  0  0
   13.0897   -5.5337   23.2543 C   0  0  0  0  0  0  0  0  0  0  0  0
   17.1172  -10.3589   13.0022 O   0  0  0  0  0  0  0  0  0  0  0  0
   16.9331   -9.0602   12.4546 C   0  0  0  0  0  0  0  0  0  0  0  0
   17.1533   -9.1026   10.9854 C   0  0  0  0  0  0  0  0  0  0  0  0
   16.4758  -10.0349   10.2057 C   0  0  0  0  0  0  0  0  0  0  0  0
   16.7235  -10.0705    8.8341 C   0  0  0  0  0  0  0  0  0  0  0  0
   16.1045  -10.9088    8.1238 O   0  0  0  0  0  0  0  0  0  0  0  0
   17.6242   -9.2040    8.2752 N   0  0  0  0  0  0  0  0  0  0  0  0
   17.8663   -9.2402    6.9302 C   0  0  0  0  0  0  0  0  0  0  0  0
   18.7811   -8.3633    6.3441 C   0  0  0  0  0  0  0  0  0  0  0  0
   19.4530   -7.4422    7.1449 C   0  0  0  0  0  0  0  0  0  0  0  0
   19.2065   -7.4069    8.5162 C   0  0  0  0  0  0  0  0  0  0  0  0
   18.2854   -8.2969    9.0731 C   0  0  0  0  0  0  0  0  0  0  0  0
   18.0462   -8.2592   10.4097 N   0  0  0  0  0  0  0  0  0  0  0  0
 14 15  1  0  0  0
 15 16  2  0  0  0
 16 17  1  0  0  0
 17 18  2  0  0  0
 18 13  1  0  0  0
 18 19  1  0  0  0
 13 12  1  0  0  0
 12  8  1  0  0  0
  8  9  2  0  0  0
  8 10  1  0  0  0
 10  1  1  0  0  0
  1  2  2  0  0  0
  2  3  1  0  0  0
  3  4  2  0  0  0
  4  5  1  0  0  0
  4  6  1  0  0  0
  6 22  1  0  0  0
  6  7  2  0  0  0
 22 23  1  0  0  0
 23 24  1  0  0  0
 24 25  2  0  0  0
 25 26  1  0  0  0
 26 27  2  0  0  0
 26 28  1  0  0  0
 28 29  1  0  0  0
 29 30  2  0  0  0
 30 31  1  0  0  0
 31 32  2  0  0  0
 32 33  1  0  0  0
 33 34  2  0  0  0
 33 28  1  0  0  0
 34 24  1  0  0  0
  7  1  1  0  0  0
 19 20  2  0  0  0
 20 21  1  0  0  0
 20 15  1  0  0  0
 10 11  1  0  0  0
M  END
>  <minimizedAffinity>
-9.94651

>  <minimizedRMSD>
1.02166

$$$$
MolPort-010-743-030 ChemDiv-G355-3273 MCULE-6446847803 PubChem-50793958 ZINC000035428416 ZINC35428416


 33 36  0  0  0  0  0  0  0  0999 V2000
   17.4710  -10.2593   14.2188 C   0  0  0  0  0  0  0  0  0  0  0  0
   16.8753   -9.5372   15.2599 C   0  0  0  0  0  0  0  0  0  0  0  0
   16.9038  -10.0044   16.5807 C   0  0  0  0  0  0  0  0  0  0  0  0
   17.5377  -11.2153   16.8622 C   0  0  0  0  0  0  0  0  0  0  0  0
   18.1322  -11.9538   15.8386 C   0  0  0  0  0  0  0  0  0  0  0  0
   18.1069  -11.4928   14.5188 C   0  0  0  0  0  0  0  0  0  0  0  0
   18.7302  -12.3671   13.4856 C   0  0  0  0  0  0  0  0  0  0  0  0
   16.3073   -9.2703   17.6582 N   0  0  0  0  0  0  0  0  0  0  0  0
   15.4510   -8.1268   17.5466 C   0  0  0  0  0  0  0  0  0  0  0  0
   15.1354   -7.6524   16.4236 O   0  0  0  0  0  0  0  0  0  0  0  0
   16.5068   -9.5845   18.5696 H   0  0  0  0  0  0  0  0  0  0  0  0
   14.9096   -7.4994   18.7852 C   0  0  0  0  0  0  0  0  0  0  0  0
   14.0045   -6.4497   18.4557 O   0  0  0  0  0  0  0  0  0  0  0  0
   12.6249   -6.5138   18.6971 C   0  0  0  0  0  0  0  0  0  0  0  0
   12.0227   -5.5643   19.5406 C   0  0  0  0  0  0  0  0  0  0  0  0
   12.8317   -4.4905   20.1826 C   0  0  0  0  0  0  0  0  0  0  0  0
   10.6472   -5.6184   19.7881 C   0  0  0  0  0  0  0  0  0  0  0  0
    9.8647   -6.6157   19.2009 C   0  0  0  0  0  0  0  0  0  0  0  0
   10.4559   -7.5646   18.3642 C   0  0  0  0  0  0  0  0  0  0  0  0
   11.8295   -7.5152   18.1144 C   0  0  0  0  0  0  0  0  0  0  0  0
   17.3876   -9.7000   12.9341 O   0  0  0  0  0  0  0  0  0  0  0  0
   18.4710   -9.1167   12.2229 C   0  0  0  0  0  0  0  0  0  0  0  0
   18.8917   -7.8811    5.0354 C   0  0  0  0  0  0  0  0  0  0  0  0
   18.6183   -8.2597    6.4463 C   0  0  0  0  0  0  0  0  0  0  0  0
   19.3871   -7.8652    7.5470 C   0  0  0  0  0  0  0  0  0  0  0  0
   18.7023   -8.4836    8.5760 C   0  0  0  0  0  0  0  0  0  0  0  0
   18.9924   -8.4574    9.9000 N   0  0  0  0  0  0  0  0  0  0  0  0
   18.1828   -9.1400   10.7645 C   0  0  0  0  0  0  0  0  0  0  0  0
   17.0643   -9.8532   10.2871 C   0  0  0  0  0  0  0  0  0  0  0  0
   16.8074   -9.8531    8.9107 C   0  0  0  0  0  0  0  0  0  0  0  0
   15.8213  -10.4753    8.4355 O   0  0  0  0  0  0  0  0  0  0  0  0
   17.6499   -9.1606    8.1072 N   0  0  0  0  0  0  0  0  0  0  0  0
   17.6078   -9.0200    6.8217 O   0  0  0  0  0  0  0  0  0  0  0  0
 23 24  1  0  0  0
 24 25  2  0  0  0
 25 26  1  0  0  0
 26 27  2  0  0  0
 27 28  1  0  0  0
 28 22  1  0  0  0
 28 29  2  0  0  0
 22 21  1  0  0  0
 21  1  1  0  0  0
  1  2  2  0  0  0
  2  3  1  0  0  0
  3  8  1  0  0  0
  3  4  2  0  0  0
  8  9  1  0  0  0
  9 10  2  0  0  0
  9 12  1  0  0  0
 12 13  1  0  0  0
 13 14  1  0  0  0
 14 15  2  0  0  0
 15 16  1  0  0  0
 15 17  1  0  0  0
 17 18  2  0  0  0
 18 19  1  0  0  0
 19 20  2  0  0  0
 20 14  1  0  0  0
  4  5  1  0  0  0
  5  6  2  0  0  0
  6  7  1  0  0  0
  6  1  1  0  0  0
 29 30  1  0  0  0
 30 31  2  0  0  0
 30 32  1  0  0  0
 32 33  1  0  0  0
 32 26  1  0  0  0
 33 24  1  0  0  0
  8 11  1  0  0  0
M  END
>  <minimizedAffinity>
-9.21666

>  <minimizedRMSD>
1.49461

$$$$
MolPort-010-743-029 ChemDiv-G355-3272 MCULE-1220108427 PubChem-50793998 ZINC000035428414 ZINC35428414


 32 35  0  0  0  0  0  0  0  0999 V2000
   17.4428  -10.1780   14.2686 C   0  0  0  0  0  0  0  0  0  0  0  0
   16.8885   -9.3865   15.2812 C   0  0  0  0  0  0  0  0  0  0  0  0
   16.8862   -9.8063   16.6178 C   0  0  0  0  0  0  0  0  0  0  0  0
   17.4510  -11.0390   16.9454 C   0  0  0  0  0  0  0  0  0  0  0  0
   18.0129  -11.8426   15.9530 C   0  0  0  0  0  0  0  0  0  0  0  0
   18.0174  -11.4289   14.6173 C   0  0  0  0  0  0  0  0  0  0  0  0
   18.6525  -12.3452   13.6286 C   0  0  0  0  0  0  0  0  0  0  0  0
   16.3177   -9.0071   17.6640 N   0  0  0  0  0  0  0  0  0  0  0  0
   15.2973   -8.0104   17.5222 C   0  0  0  0  0  0  0  0  0  0  0  0
   14.7836   -7.7537   16.4014 O   0  0  0  0  0  0  0  0  0  0  0  0
   16.6638   -9.1585   18.5731 H   0  0  0  0  0  0  0  0  0  0  0  0
   14.8081   -7.2932   18.7285 C   0  0  0  0  0  0  0  0  0  0  0  0
   13.3937   -7.4088   18.8096 O   0  0  0  0  0  0  0  0  0  0  0  0
   12.6145   -6.5828   19.6239 C   0  0  0  0  0  0  0  0  0  0  0  0
   12.9820   -6.2958   20.9491 C   0  0  0  0  0  0  0  0  0  0  0  0
   12.1815   -5.4641   21.7378 C   0  0  0  0  0  0  0  0  0  0  0  0
   11.0104   -4.9154   21.2084 C   0  0  0  0  0  0  0  0  0  0  0  0
   10.6399   -5.1978   19.8907 C   0  0  0  0  0  0  0  0  0  0  0  0
   11.4404   -6.0295   19.1015 C   0  0  0  0  0  0  0  0  0  0  0  0
   17.3873   -9.6604   12.9645 O   0  0  0  0  0  0  0  0  0  0  0  0
   18.4870   -9.1244   12.2429 C   0  0  0  0  0  0  0  0  0  0  0  0
   18.8519   -7.8944    5.0528 C   0  0  0  0  0  0  0  0  0  0  0  0
   18.5899   -8.2731    6.4661 C   0  0  0  0  0  0  0  0  0  0  0  0
   19.3742   -7.8894    7.5593 C   0  0  0  0  0  0  0  0  0  0  0  0
   18.6938   -8.5024    8.5940 C   0  0  0  0  0  0  0  0  0  0  0  0
   18.9959   -8.4789    9.9153 N   0  0  0  0  0  0  0  0  0  0  0  0
   18.1919   -9.1590   10.7864 C   0  0  0  0  0  0  0  0  0  0  0  0
   17.0600   -9.8587   10.3195 C   0  0  0  0  0  0  0  0  0  0  0  0
   16.7891   -9.8528    8.9457 C   0  0  0  0  0  0  0  0  0  0  0  0
   15.7927  -10.4652    8.4797 O   0  0  0  0  0  0  0  0  0  0  0  0
   17.6298   -9.1671    8.1349 N   0  0  0  0  0  0  0  0  0  0  0  0
   17.5754   -9.0227    6.8504 O   0  0  0  0  0  0  0  0  0  0  0  0
 22 23  1  0  0  0
 23 24  2  0  0  0
 24 25  1  0  0  0
 25 26  2  0  0  0
 26 27  1  0  0  0
 27 21  1  0  0  0
 27 28  2  0  0  0
 21 20  1  0  0  0
 20  1  1  0  0  0
  1  2  2  0  0  0
  2  3  1  0  0  0
  3  8  1  0  0  0
  3  4  2  0  0  0
  8  9  1  0  0  0
  9 10  2  0  0  0
  9 12  1  0  0  0
 12 13  1  0  0  0
 13 14  1  0  0  0
 14 15  2  0  0  0
 15 16  1  0  0  0
 16 17  2  0  0  0
 17 18  1  0  0  0
 18 19  2  0  0  0
 19 14  1  0  0  0
  4  5  1  0  0  0
  5  6  2  0  0  0
  6  7  1  0  0  0
  6  1  1  0  0  0
 28 29  1  0  0  0
 29 30  2  0  0  0
 29 31  1  0  0  0
 31 32  1  0  0  0
 31 25  1  0  0  0
 32 23  1  0  0  0
  8 11  1  0  0  0
M  END
>  <minimizedAffinity>
-9.04944

>  <minimizedRMSD>
1.00689

$$$$
MolPort-007-879-116 33067800 ChemDiv-G756-0360 MCULE-6394300379 PubChem-46355983 ZINC000033067800 ZINC33067800


 33 36  0  0  0  0  0  0  0  0999 V2000
   18.7715  -12.4716   13.5729 C   0  0  0  0  0  0  0  0  0  0  0  0
   18.1098  -11.5950   14.5802 C   0  0  0  0  0  0  0  0  0  0  0  0
   18.0880  -12.0531   15.9012 C   0  0  0  0  0  0  0  0  0  0  0  0
   17.4829  -11.2996   16.9061 C   0  0  0  0  0  0  0  0  0  0  0  0
   16.8852  -10.0752   16.6049 C   0  0  0  0  0  0  0  0  0  0  0  0
   16.9068   -9.6086   15.2837 C   0  0  0  0  0  0  0  0  0  0  0  0
   17.5124  -10.3463   14.2601 C   0  0  0  0  0  0  0  0  0  0  0  0
   16.2809   -9.3225   17.6652 N   0  0  0  0  0  0  0  0  0  0  0  0
   15.5355   -8.1056   17.5363 C   0  0  0  0  0  0  0  0  0  0  0  0
   15.2750   -7.6141   16.4058 O   0  0  0  0  0  0  0  0  0  0  0  0
   16.3894   -9.6788   18.5765 H   0  0  0  0  0  0  0  0  0  0  0  0
   15.0298   -7.4287   18.7633 C   0  0  0  0  0  0  0  0  0  0  0  0
   13.9093   -6.6063   18.4520 O   0  0  0  0  0  0  0  0  0  0  0  0
   12.5818   -7.0504   18.5205 C   0  0  0  0  0  0  0  0  0  0  0  0
   11.5427   -6.1114   18.6277 C   0  0  0  0  0  0  0  0  0  0  0  0
   11.8856   -4.3909   18.6695 Cl  0  0  0  0  0  0  0  0  0  0  0  0
   10.2136   -6.5410   18.7067 C   0  0  0  0  0  0  0  0  0  0  0  0
    9.9118   -7.9047   18.6765 C   0  0  0  0  0  0  0  0  0  0  0  0
   10.9396   -8.8444   18.5668 C   0  0  0  0  0  0  0  0  0  0  0  0
   12.2688   -8.4198   18.4923 C   0  0  0  0  0  0  0  0  0  0  0  0
   17.4820   -9.7819   12.9745 O   0  0  0  0  0  0  0  0  0  0  0  0
   18.6037   -9.2555   12.2804 C   0  0  0  0  0  0  0  0  0  0  0  0
   18.3011   -9.1775   10.8269 C   0  0  0  0  0  0  0  0  0  0  0  0
   17.1889   -9.8377   10.3128 C   0  0  0  0  0  0  0  0  0  0  0  0
   16.9195   -9.7398    8.9481 C   0  0  0  0  0  0  0  0  0  0  0  0
   15.9072  -10.3310    8.4809 O   0  0  0  0  0  0  0  0  0  0  0  0
   17.7429   -9.0057    8.1365 N   0  0  0  0  0  0  0  0  0  0  0  0
   17.4820   -8.9156    6.7978 C   0  0  0  0  0  0  0  0  0  0  0  0
   18.3100   -8.1698    5.9570 C   0  0  0  0  0  0  0  0  0  0  0  0
   19.4146   -7.5098    6.4947 C   0  0  0  0  0  0  0  0  0  0  0  0
   19.6795   -7.6013    7.8601 C   0  0  0  0  0  0  0  0  0  0  0  0
   18.8327   -8.3564    8.6751 C   0  0  0  0  0  0  0  0  0  0  0  0
   19.0953   -8.4469   10.0046 N   0  0  0  0  0  0  0  0  0  0  0  0
  1  2  1  0  0  0
  2  3  2  0  0  0
  3  4  1  0  0  0
  4  5  2  0  0  0
  5  8  1  0  0  0
  5  6  1  0  0  0
  8  9  1  0  0  0
  9 10  2  0  0  0
  9 12  1  0  0  0
 12 13  1  0  0  0
 13 14  1  0  0  0
 14 15  2  0  0  0
 15 16  1  0  0  0
 15 17  1  0  0  0
 17 18  2  0  0  0
 18 19  1  0  0  0
 19 20  2  0  0  0
 20 14  1  0  0  0
  6  7  2  0  0  0
  7 21  1  0  0  0
  7  2  1  0  0  0
 21 22  1  0  0  0
 22 23  1  0  0  0
 23 24  2  0  0  0
 24 25  1  0  0  0
 25 26  2  0  0  0
 25 27  1  0  0  0
 27 28  1  0  0  0
 28 29  2  0  0  0
 29 30  1  0  0  0
 30 31  2  0  0  0
 31 32  1  0  0  0
 32 33  2  0  0  0
 32 27  1  0  0  0
 33 23  1  0  0  0
  8 11  1  0  0  0
M  END
>  <minimizedAffinity>
-8.83079

>  <minimizedRMSD>
1.33466

$$$$
MolPort-007-706-779 ChemDiv-D439-4147 MCULE-6273110940 PubChem-46268361 ZINC000021797132 ZINC21797132


 36 39  0  0  0  0  0  0  0  0999 V2000
   16.8786   -9.5922   16.6562 C   0  0  0  0  0  0  0  0  0  0  0  0
   17.6960  -10.7116   16.8148 C   0  0  0  0  0  0  0  0  0  0  0  0
   18.1993  -11.3800   15.6985 C   0  0  0  0  0  0  0  0  0  0  0  0
   17.8944  -10.9414   14.4064 C   0  0  0  0  0  0  0  0  0  0  0  0
   18.4790  -11.7157   13.2754 C   0  0  0  0  0  0  0  0  0  0  0  0
   17.0637   -9.8030   14.2298 C   0  0  0  0  0  0  0  0  0  0  0  0
   16.5705   -9.1477   15.3639 C   0  0  0  0  0  0  0  0  0  0  0  0
   15.3318   -7.9543   17.8779 C   0  0  0  0  0  0  0  0  0  0  0  0
   14.7126   -7.6029   16.8391 O   0  0  0  0  0  0  0  0  0  0  0  0
   16.3810   -8.9293   17.8263 N   0  0  0  0  0  0  0  0  0  0  0  0
   16.8036   -9.1687   18.6826 H   0  0  0  0  0  0  0  0  0  0  0  0
   14.9402   -7.3766   19.1900 C   0  0  0  0  0  0  0  0  0  0  0  0
   13.5356   -7.5059   19.3655 O   0  0  0  0  0  0  0  0  0  0  0  0
   11.3430   -6.4891   19.5629 C   0  0  0  0  0  0  0  0  0  0  0  0
   12.7267   -6.4537   19.8102 C   0  0  0  0  0  0  0  0  0  0  0  0
   13.2747   -5.3588   20.4999 C   0  0  0  0  0  0  0  0  0  0  0  0
   12.4551   -4.3174   20.9415 C   0  0  0  0  0  0  0  0  0  0  0  0
   11.0807   -4.3607   20.7001 C   0  0  0  0  0  0  0  0  0  0  0  0
   10.5260   -5.4442   20.0151 C   0  0  0  0  0  0  0  0  0  0  0  0
   10.7942   -7.4471   17.3452 C   0  0  0  0  0  0  0  0  0  0  0  0
   10.7304   -7.6500   18.8480 C   0  0  0  0  0  0  0  0  0  0  0  0
   16.6904   -9.2714   12.9848 O   0  0  0  0  0  0  0  0  0  0  0  0
   16.1663  -10.0147   11.8937 C   0  0  0  0  0  0  0  0  0  0  0  0
   16.8483   -9.6051   10.6381 C   0  0  0  0  0  0  0  0  0  0  0  0
   16.3935  -10.1062    9.4015 C   0  0  0  0  0  0  0  0  0  0  0  0
   17.0349   -9.6864    8.2296 C   0  0  0  0  0  0  0  0  0  0  0  0
   16.6598  -10.1142    7.1063 O   0  0  0  0  0  0  0  0  0  0  0  0
   18.0660   -8.8074    8.3491 N   0  0  0  0  0  0  0  0  0  0  0  0
   18.8302   -8.2557    7.4247 N   0  0  0  0  0  0  0  0  0  0  0  0
   19.7062   -7.4470    8.0711 C   0  0  0  0  0  0  0  0  0  0  0  0
   19.5060   -7.4767    9.4174 N   0  0  0  0  0  0  0  0  0  0  0  0
   18.4762   -8.3381    9.5288 C   0  0  0  0  0  0  0  0  0  0  0  0
   17.8846   -8.7163   10.6882 N   0  0  0  0  0  0  0  0  0  0  0  0
   18.7411   -8.4835    5.9843 C   0  0  0  0  0  0  0  0  0  0  0  0
   20.0485   -8.1200    5.3058 C   0  0  0  0  0  0  0  0  0  0  0  0
   17.6027   -7.6781    5.3864 C   0  0  0  0  0  0  0  0  0  0  0  0
 20 21  1  0  0  0
 21 14  1  0  0  0
 14 15  2  0  0  0
 15 13  1  0  0  0
 15 16  1  0  0  0
 13 12  1  0  0  0
 12  8  1  0  0  0
  8  9  2  0  0  0
  8 10  1  0  0  0
 10  1  1  0  0  0
  1  2  2  0  0  0
  2  3  1  0  0  0
  3  4  2  0  0  0
  4  5  1  0  0  0
  4  6  1  0  0  0
  6 22  1  0  0  0
  6  7  2  0  0  0
 22 23  1  0  0  0
 23 24  1  0  0  0
 24 25  2  0  0  0
 25 26  1  0  0  0
 26 27  2  0  0  0
 26 28  1  0  0  0
 28 29  1  0  0  0
 29 30  1  0  0  0
 29 34  1  0  0  0
 30 31  2  0  0  0
 31 32  1  0  0  0
 32 33  2  0  0  0
 32 28  1  0  0  0
 33 24  1  0  0  0
 34 35  1  0  0  0
 34 36  1  0  0  0
  7  1  1  0  0  0
 16 17  2  0  0  0
 17 18  1  0  0  0
 18 19  2  0  0  0
 19 14  1  0  0  0
 10 11  1  0  0  0
M  END
>  <minimizedAffinity>
-8.79978

>  <minimizedRMSD>
1.31057

$$$$
